/*--------------------------------*- C++ -*----------------------------------*\
| =========                 |                                                 |
| \\      /  F ield         | OpenFOAM: The Open Source CFD Toolbox           |
|  \\    /   O peration     | Version:  v1806                                 |
|   \\  /    A nd           | Web:      www.OpenFOAM.com                      |
|    \\/     M anipulation  |                                                 |
\*---------------------------------------------------------------------------*/
FoamFile
{
    version     2.0;
    format      ascii;
    class       dictionary;
    object      blockMeshDict;
}
// * * * * * * * * * * * * * * * * * * * * * * * * * * * * * * * * * * * * * //

scale   1;

vertices
(
    
    (0.0	0.0	0.0) // 0
    (0.06	0.0	0.0) // 1
    (0.06	0.009999963781957692	-0.00043702340320300373) // 2
    (0.0	0.009999963781957692	-0.00043702340320300373) // 3
    (0.06	0.01	0.00043619387365336) // 4
    (0.0	0.01	0.00043619387365336) // 5
    (0.09	0.0	0.0) // 6
    (0.09	0.0014999945672936538	-6.555351048045057e-05) // 7
    (0.09	0.0015	6.5429081048004e-05) // 8
    (0.105	0.0	0.0) // 9
    (0.105	0.0014999945672936538	-6.555351048045057e-05) // 10
    (0.105	0.0015	6.5429081048004e-05) // 11
    (0.20500000000000002	0.0	0.0) // 12
    (0.20500000000000002	0.0014999945672936538	-6.555351048045057e-05) // 13
    (0.20500000000000002	0.0015	6.5429081048004e-05) // 14
    (0.20500000000000002	0.024999909454894234	-0.001092558508007509) // 15
    (0.105	0.024999909454894234	-0.001092558508007509) // 16
    (0.20500000000000002	0.025	0.0010904846841334) // 17
    (0.105	0.025	0.0010904846841334) // 18
);

blocks
(
    
    hex  ( 0 1 2 3 0 1 4 5 )  (60 10 1)  simpleGrading (1 1 1) // 0 
    hex  ( 1 6 7 2 1 6 8 4 )  (66 10 1)  simpleGrading (0.14343171906505836 1 1) // 1 
    hex  ( 6 9 10 7 6 9 11 8 )  (99 10 1)  simpleGrading (1 1 1) // 2 
    hex  ( 9 12 13 10 9 12 14 11 )  (222 10 1)  simpleGrading (6.766481918886661 1 1) // 3 
    hex  ( 10 13 15 16 11 14 17 18 )  (222 52 1)  simpleGrading (6.766481918886661 6.962715251035615 1) // 4 
);

edges
(
    
    arc 7 2 (0.075 0.0038250000000000003 -0.0001668441566724102)
    arc 8 4 (0.075 0.0038250000000000003 0.0001668441566724102)
);

boundary
(
    
    wedge_right
    {
        type patch;
        faces
        (
            (0 1 2 3)
            (1 6 7 2)
            (6 9 10 7)
            (9 12 13 10)
            (10 13 15 16)
            
        );

    }
    
    outlet
    {
        type patch;
        faces
        (
            (12 12 13 14)
            (14 13 15 17)
            
        );

    }
    
    wedge_left
    {
        type patch;
        faces
        (
            (0 1 4 5)
            (1 6 8 4)
            (6 9 11 8)
            (9 12 14 11)
            (11 14 17 18)
            
        );

    }
    
    wall
    {
        type patch;
        faces
        (
            (5 4 2 3)
            (4 8 7 2)
            (8 11 10 7)
            (18 17 15 16)
            (11 10 16 18)
            
        );

    }
    
    inlet
    {
        type patch;
        faces
        (
            (0 0 3 5)
            
        );

    }
    
);

mergePatchPairs
(
);

// ************************************************************************* //