/*--------------------------------*- C++ -*----------------------------------*\
| =========                 |                                                 |
| \\      /  F ield         | OpenFOAM: The Open Source CFD Toolbox           |
|  \\    /   O peration     | Version:  v1806                                 |
|   \\  /    A nd           | Web:      www.OpenFOAM.com                      |
|    \\/     M anipulation  |                                                 |
\*---------------------------------------------------------------------------*/
FoamFile
{
    version     2.0;
    format      ascii;
    class       dictionary;
    object      blockMeshDict;
}
// * * * * * * * * * * * * * * * * * * * * * * * * * * * * * * * * * * * * * //

scale   1;

vertices
(
    
    (0.0	2.4492935982947063e-19	-0.004) // 0
    (0.01	2.4492935982947063e-19	-0.004) // 1
    (0.01	7.347880794884119e-19	-0.012) // 2
    (0.0	7.347880794884119e-19	-0.012) // 3
    (0.0	0.004	0.0) // 4
    (0.01	0.004	0.0) // 5
    (0.01	0.012	0.0) // 6
    (0.0	0.012	0.0) // 7
    (0.0	-0.004	-4.898587196589413e-19) // 8
    (0.01	-0.004	-4.898587196589413e-19) // 9
    (0.01	-0.012	-1.4695761589768239e-18) // 10
    (0.0	-0.012	-1.4695761589768239e-18) // 11
    (0.0	-7.347880794884119e-19	0.004) // 12
    (0.01	-7.347880794884119e-19	0.004) // 13
    (0.01	-2.2043642384652355e-18	0.012) // 14
    (0.0	-2.2043642384652355e-18	0.012) // 15
    (0.01	8.572527594031473e-19	-0.014) // 16
    (0.0	8.572527594031473e-19	-0.014) // 17
    (0.01	0.014	0.0) // 18
    (0.0	0.014	0.0) // 19
    (0.01	-0.014	-1.7145055188062945e-18) // 20
    (0.0	-0.014	-1.7145055188062945e-18) // 21
    (0.01	-2.5717582782094414e-18	0.014) // 22
    (0.0	-2.5717582782094414e-18	0.014) // 23
    (0.025	7.347880794884119e-19	-0.012) // 24
    (0.025	8.572527594031473e-19	-0.014) // 25
    (0.025	0.012	0.0) // 26
    (0.025	0.014	0.0) // 27
    (0.025	-0.012	-1.4695761589768239e-18) // 28
    (0.025	-0.014	-1.7145055188062945e-18) // 29
    (0.025	-2.2043642384652355e-18	0.012) // 30
    (0.025	-2.5717582782094414e-18	0.014) // 31
    (0.045	7.347880794884119e-19	-0.012) // 32
    (0.045	8.572527594031473e-19	-0.014) // 33
    (0.045	0.012	0.0) // 34
    (0.045	0.014	0.0) // 35
    (0.045	-0.012	-1.4695761589768239e-18) // 36
    (0.045	-0.014	-1.7145055188062945e-18) // 37
    (0.045	-2.2043642384652355e-18	0.012) // 38
    (0.045	-2.5717582782094414e-18	0.014) // 39
    (0.025	2.4492935982947063e-19	-0.004) // 40
    (0.045	2.4492935982947063e-19	-0.004) // 41
    (0.025	0.004	0.0) // 42
    (0.045	0.004	0.0) // 43
    (0.025	-0.004	-4.898587196589413e-19) // 44
    (0.045	-0.004	-4.898587196589413e-19) // 45
    (0.025	-7.347880794884119e-19	0.004) // 46
    (0.045	-7.347880794884119e-19	0.004) // 47
);

blocks
(
    
    hex  ( 0 1 2 3 4 5 6 7 )  (5 10 25)  simpleGrading (0.22104575685859967 0.0800726598076873 1) // 0 
    hex  ( 8 9 10 11 0 1 2 3 )  (5 10 25)  simpleGrading (0.22104575685859967 0.0800726598076873 1) // 1 
    hex  ( 12 13 14 15 8 9 10 11 )  (5 10 25)  simpleGrading (0.22104575685859967 0.0800726598076873 1) // 2 
    hex  ( 4 5 6 7 12 13 14 15 )  (5 10 25)  simpleGrading (0.22104575685859967 0.0800726598076873 1) // 3 
    hex  ( 3 2 16 17 7 6 18 19 )  (5 10 25)  simpleGrading (0.22104575685859967 1 1) // 4 
    hex  ( 11 10 20 21 3 2 16 17 )  (5 10 25)  simpleGrading (0.22104575685859967 1 1) // 5 
    hex  ( 15 14 22 23 11 10 20 21 )  (5 10 25)  simpleGrading (0.22104575685859967 1 1) // 6 
    hex  ( 7 6 18 19 15 14 22 23 )  (5 10 25)  simpleGrading (0.22104575685859967 1 1) // 7 
    hex  ( 2 24 25 16 6 26 27 18 )  (15 10 25)  simpleGrading (1 1 1) // 8 
    hex  ( 10 28 29 20 2 24 25 16 )  (15 10 25)  simpleGrading (1 1 1) // 9 
    hex  ( 14 30 31 22 10 28 29 20 )  (15 10 25)  simpleGrading (1 1 1) // 10 
    hex  ( 6 26 27 18 14 30 31 22 )  (15 10 25)  simpleGrading (1 1 1) // 11 
    hex  ( 24 32 33 25 26 34 35 27 )  (9 10 25)  simpleGrading (4.817853149216601 1 1) // 12 
    hex  ( 28 36 37 29 24 32 33 25 )  (9 10 25)  simpleGrading (4.817853149216601 1 1) // 13 
    hex  ( 30 38 39 31 28 36 37 29 )  (9 10 25)  simpleGrading (4.817853149216601 1 1) // 14 
    hex  ( 26 34 35 27 30 38 39 31 )  (9 10 25)  simpleGrading (4.817853149216601 1 1) // 15 
    hex  ( 40 41 32 24 42 43 34 26 )  (9 10 25)  simpleGrading (4.817853149216601 0.0800726598076873 1) // 16 
    hex  ( 44 45 36 28 40 41 32 24 )  (9 10 25)  simpleGrading (4.817853149216601 0.0800726598076873 1) // 17 
    hex  ( 46 47 38 30 44 45 36 28 )  (9 10 25)  simpleGrading (4.817853149216601 0.0800726598076873 1) // 18 
    hex  ( 42 43 34 26 46 47 38 30 )  (9 10 25)  simpleGrading (4.817853149216601 0.0800726598076873 1) // 19 
);

edges
(
    
    arc 0 4 (0.0 0.0028284271247461905 0.00282842712474619)
    arc 1 5 (0.01 0.0028284271247461905 0.00282842712474619)
    arc 2 6 (0.01 0.008485281374238571 0.00848528137423857)
    arc 3 7 (0.0 0.008485281374238571 0.00848528137423857)
    arc 8 0 (0.0 0.00282842712474619 -0.0028284271247461905)
    arc 9 1 (0.01 0.00282842712474619 -0.0028284271247461905)
    arc 10 2 (0.01 0.00848528137423857 -0.008485281374238571)
    arc 11 3 (0.0 0.00848528137423857 -0.008485281374238571)
    arc 12 8 (0.0 -0.00282842712474619 -0.0028284271247461905)
    arc 13 9 (0.01 -0.00282842712474619 -0.0028284271247461905)
    arc 14 10 (0.01 -0.00848528137423857 -0.008485281374238571)
    arc 15 11 (0.0 -0.00848528137423857 -0.008485281374238571)
    arc 4 12 (0.0 -0.0028284271247461905 0.00282842712474619)
    arc 5 13 (0.01 -0.0028284271247461905 0.00282842712474619)
    arc 6 14 (0.01 -0.008485281374238571 0.00848528137423857)
    arc 7 15 (0.0 -0.008485281374238571 0.00848528137423857)
    arc 16 18 (0.01 0.009899494936611667 0.009899494936611665)
    arc 17 19 (0.0 0.009899494936611667 0.009899494936611665)
    arc 20 16 (0.01 0.009899494936611665 -0.009899494936611667)
    arc 21 17 (0.0 0.009899494936611665 -0.009899494936611667)
    arc 22 20 (0.01 -0.009899494936611665 -0.009899494936611667)
    arc 23 21 (0.0 -0.009899494936611665 -0.009899494936611667)
    arc 18 22 (0.01 -0.009899494936611667 0.009899494936611665)
    arc 19 23 (0.0 -0.009899494936611667 0.009899494936611665)
    arc 24 26 (0.025 0.008485281374238571 0.00848528137423857)
    arc 25 27 (0.025 0.009899494936611667 0.009899494936611665)
    arc 28 24 (0.025 0.00848528137423857 -0.008485281374238571)
    arc 29 25 (0.025 0.009899494936611665 -0.009899494936611667)
    arc 30 28 (0.025 -0.00848528137423857 -0.008485281374238571)
    arc 31 29 (0.025 -0.009899494936611665 -0.009899494936611667)
    arc 26 30 (0.025 -0.008485281374238571 0.00848528137423857)
    arc 27 31 (0.025 -0.009899494936611667 0.009899494936611665)
    arc 32 34 (0.045 0.008485281374238571 0.00848528137423857)
    arc 33 35 (0.045 0.009899494936611667 0.009899494936611665)
    arc 36 32 (0.045 0.00848528137423857 -0.008485281374238571)
    arc 37 33 (0.045 0.009899494936611665 -0.009899494936611667)
    arc 38 36 (0.045 -0.00848528137423857 -0.008485281374238571)
    arc 39 37 (0.045 -0.009899494936611665 -0.009899494936611667)
    arc 34 38 (0.045 -0.008485281374238571 0.00848528137423857)
    arc 35 39 (0.045 -0.009899494936611667 0.009899494936611665)
    arc 40 42 (0.025 0.0028284271247461905 0.00282842712474619)
    arc 41 43 (0.045 0.0028284271247461905 0.00282842712474619)
    arc 44 40 (0.025 0.00282842712474619 -0.0028284271247461905)
    arc 45 41 (0.045 0.00282842712474619 -0.0028284271247461905)
    arc 46 44 (0.025 -0.00282842712474619 -0.0028284271247461905)
    arc 47 45 (0.045 -0.00282842712474619 -0.0028284271247461905)
    arc 42 46 (0.025 -0.0028284271247461905 0.00282842712474619)
    arc 43 47 (0.045 -0.0028284271247461905 0.00282842712474619)
);

boundary
(
    
    inlet
    {
        type patch;
        faces
        (
            (4 0 3 7)
            (0 8 11 3)
            (8 12 15 11)
            (12 4 7 15)
            (7 3 17 19)
            (3 11 21 17)
            (11 15 23 21)
            (15 7 19 23)
            
        );

    }
    
    stator
    {
        type patch;
        faces
        (
            (19 18 16 17)
            (17 16 20 21)
            (21 20 22 23)
            (23 22 18 19)
            (18 27 25 16)
            (16 25 29 20)
            (20 29 31 22)
            (22 31 27 18)
            (27 35 33 25)
            (25 33 37 29)
            (29 37 39 31)
            (31 39 35 27)
            
        );

    }
    
    rotor
    {
        type patch;
        faces
        (
            (4 5 1 0)
            (5 1 2 6)
            (0 1 9 8)
            (1 9 10 2)
            (8 9 13 12)
            (9 13 14 10)
            (12 13 5 4)
            (13 5 6 14)
            (6 26 24 2)
            (2 24 28 10)
            (10 28 30 14)
            (14 30 26 6)
            (42 43 41 40)
            (42 40 24 26)
            (40 41 45 44)
            (40 44 28 24)
            (44 45 47 46)
            (44 46 30 28)
            (46 47 43 42)
            (46 42 26 30)
            
        );

    }
    
    outlet
    {
        type patch;
        faces
        (
            (34 32 33 35)
            (32 36 37 33)
            (36 38 39 37)
            (38 34 35 39)
            (43 41 32 34)
            (41 45 36 32)
            (45 47 38 36)
            (47 43 34 38)
            
        );

    }
    
);

mergePatchPairs
(
);

// ************************************************************************* //