/*--------------------------------*- C++ -*----------------------------------*\
| =========                 |                                                 |
| \\      /  F ield         | OpenFOAM: The Open Source CFD Toolbox           |
|  \\    /   O peration     | Version:  v1806                                 |
|   \\  /    A nd           | Web:      www.OpenFOAM.com                      |
|    \\/     M anipulation  |                                                 |
\*---------------------------------------------------------------------------*/
FoamFile
{
    version     2.0;
    format      ascii;
    class       dictionary;
    object      blockMeshDict;
}
// * * * * * * * * * * * * * * * * * * * * * * * * * * * * * * * * * * * * * //

scale   1;

vertices
(
    
    (0.5	0.05	0.05) // 0
    (0.5	0.05	-0.05) // 1
    (0.5	-0.05	-0.05) // 2
    (0.5	-0.05	0.05) // 3
    (0.0	0.05	0.05) // 4
    (0.0	0.05	-0.05) // 5
    (0.0	-0.05	-0.05) // 6
    (0.0	-0.05	0.05) // 7
    (0.65	0.05	0.2) // 8
    (0.75	0.05	0.19999999999999998) // 9
    (0.75	-0.05	0.19999999999999998) // 10
    (0.65	-0.05	0.2) // 11
    (0.65	0.2	0.35000000000000003) // 12
    (0.75	0.19999999999999998	0.35000000000000003) // 13
    (0.75	0.19999999999999996	0.45) // 14
    (0.65	0.19999999999999998	0.45) // 15
    (0.65	1.0	0.35000000000000003) // 16
    (0.75	1.0	0.35000000000000003) // 17
    (0.75	1.0	0.45) // 18
    (0.65	1.0	0.45) // 19
);

blocks
(
    
    hex  ( 0 1 2 3 4 5 6 7 )  (10 10 25)  simpleGrading (1 1 3.6680998667639435) // 0 
    hex  ( 8 9 10 11 0 1 2 3 )  (10 10 23)  simpleGrading (1 1 1) // 1 
    hex  ( 12 13 14 15 8 9 10 11 )  (10 10 23)  simpleGrading (1 1 1) // 2 
    hex  ( 16 17 18 19 12 13 14 15 )  (10 10 40)  simpleGrading (1 1 0.2771774969691407) // 3 
);

edges
(
    
    arc 8 0 (0.6060660171779821 0.05 0.09393398282201786)
    arc 9 1 (0.6767766952966369 0.05 0.023223304703363118)
    arc 10 2 (0.6767766952966369 -0.05 0.023223304703363118)
    arc 11 3 (0.6060660171779821 -0.05 0.09393398282201786)
    arc 12 8 (0.65 0.09393398282201786 0.30606601717798215)
    arc 13 9 (0.75 0.09393398282201784 0.30606601717798215)
    arc 14 10 (0.75 0.02322330470336309 0.3767766952966368)
    arc 15 11 (0.65 0.023223304703363118 0.3767766952966369)
);

boundary
(
    
    walls
    {
        type patch;
        faces
        (
            (4 5 1 0)
            (7 6 2 3)
            (4 0 3 7)
            (5 1 2 6)
            (0 1 9 8)
            (3 2 10 11)
            (0 8 11 3)
            (1 9 10 2)
            (8 9 13 12)
            (11 10 14 15)
            (8 12 15 11)
            (9 13 14 10)
            (12 13 17 16)
            (15 14 18 19)
            (12 16 19 15)
            (13 17 18 14)
            
        );

    }
    
    inlet
    {
        type patch;
        faces
        (
            (4 5 6 7)
            
        );

    }
    
    outlet
    {
        type patch;
        faces
        (
            (16 17 18 19)
            
        );

    }
    
);

mergePatchPairs
(
);

// ************************************************************************* //