/*--------------------------------*- C++ -*----------------------------------*\
| =========                 |                                                 |
| \\      /  F ield         | OpenFOAM: The Open Source CFD Toolbox           |
|  \\    /   O peration     | Version:  v1806                                 |
|   \\  /    A nd           | Web:      www.OpenFOAM.com                      |
|    \\/     M anipulation  |                                                 |
\*---------------------------------------------------------------------------*/
FoamFile
{
    version     2.0;
    format      ascii;
    class       dictionary;
    object      blockMeshDict;
}
// * * * * * * * * * * * * * * * * * * * * * * * * * * * * * * * * * * * * * //

scale   1;

vertices
(
    
    (0.0	0.0001414213562373095	0.0001414213562373095) // 0
    (0.0	-0.0001414213562373095	0.0001414213562373095) // 1
    (0.0	-0.00014142135623730954	-0.0001414213562373095) // 2
    (0.0	0.00014142135623730948	-0.00014142135623730954) // 3
    (0.005	0.0001414213562373095	0.0001414213562373095) // 4
    (0.005	-0.0001414213562373095	0.0001414213562373095) // 5
    (0.005	-0.00014142135623730954	-0.0001414213562373095) // 6
    (0.005	0.00014142135623730948	-0.00014142135623730954) // 7
    (0.0	0.000282842712474619	0.000282842712474619) // 8
    (0.0	-0.000282842712474619	0.000282842712474619) // 9
    (0.005	0.000282842712474619	0.000282842712474619) // 10
    (0.005	-0.000282842712474619	0.000282842712474619) // 11
    (0.0	-0.00028284271247461907	-0.000282842712474619) // 12
    (0.005	-0.00028284271247461907	-0.000282842712474619) // 13
    (0.0	0.00028284271247461896	-0.00028284271247461907) // 14
    (0.005	0.00028284271247461896	-0.00028284271247461907) // 15
    (0.006	0.0007071067811865476	0.0007071067811865475) // 16
    (0.006	-0.0007071067811865475	0.0007071067811865476) // 17
    (0.006	-0.0007071067811865477	-0.0007071067811865475) // 18
    (0.006	0.0007071067811865474	-0.0007071067811865477) // 19
    (0.006	0.0014142135623730952	0.001414213562373095) // 20
    (0.006	-0.001414213562373095	0.0014142135623730952) // 21
    (0.006	-0.0014142135623730955	-0.001414213562373095) // 22
    (0.006	0.0014142135623730948	-0.0014142135623730955) // 23
    (0.07200000000000001	0.0007071067811865476	0.0007071067811865475) // 24
    (0.07200000000000001	-0.0007071067811865475	0.0007071067811865476) // 25
    (0.07200000000000001	-0.0007071067811865477	-0.0007071067811865475) // 26
    (0.07200000000000001	0.0007071067811865474	-0.0007071067811865477) // 27
    (0.07200000000000001	0.0014142135623730952	0.001414213562373095) // 28
    (0.07200000000000001	-0.001414213562373095	0.0014142135623730952) // 29
    (0.07200000000000001	-0.0014142135623730955	-0.001414213562373095) // 30
    (0.07200000000000001	0.0014142135623730948	-0.0014142135623730955) // 31
);

blocks
(
    
    hex  ( 0 1 2 3 4 5 6 7 )  (5 5 62)  simpleGrading (1 1 1) // 0 
    hex  ( 0 8 9 1 4 10 11 5 )  (5 5 62)  simpleGrading (1 1 1) // 1 
    hex  ( 1 9 12 2 5 11 13 6 )  (5 5 62)  simpleGrading (1 1 1) // 2 
    hex  ( 2 12 14 3 6 13 15 7 )  (5 5 62)  simpleGrading (1 1 1) // 3 
    hex  ( 3 14 8 0 7 15 10 4 )  (5 5 62)  simpleGrading (1 1 1) // 4 
    hex  ( 4 5 6 7 16 17 18 19 )  (5 5 12)  simpleGrading (1 1 1) // 5 
    hex  ( 4 10 11 5 16 20 21 17 )  (5 5 12)  simpleGrading (1 1 1) // 6 
    hex  ( 5 11 13 6 17 21 22 18 )  (5 5 12)  simpleGrading (1 1 1) // 7 
    hex  ( 6 13 15 7 18 22 23 19 )  (5 5 12)  simpleGrading (1 1 1) // 8 
    hex  ( 7 15 10 4 19 23 20 16 )  (5 5 12)  simpleGrading (1 1 1) // 9 
    hex  ( 16 17 18 19 24 25 26 27 )  (5 5 165)  simpleGrading (1 1 13.643535723703733) // 10 
    hex  ( 16 20 21 17 24 28 29 25 )  (5 5 165)  simpleGrading (1 1 13.643535723703733) // 11 
    hex  ( 17 21 22 18 25 29 30 26 )  (5 5 165)  simpleGrading (1 1 13.643535723703733) // 12 
    hex  ( 18 22 23 19 26 30 31 27 )  (5 5 165)  simpleGrading (1 1 13.643535723703733) // 13 
    hex  ( 19 23 20 16 27 31 28 24 )  (5 5 165)  simpleGrading (1 1 13.643535723703733) // 14 
);

edges
(
    
    arc 8 9 (0.0 2.4492935982947065e-20 0.0004)
    arc 10 11 (0.005 2.4492935982947065e-20 0.0004)
    arc 9 12 (0.0 -0.0004 4.898587196589413e-20)
    arc 11 13 (0.005 -0.0004 4.898587196589413e-20)
    arc 12 14 (0.0 -7.34788079488412e-20 -0.0004)
    arc 13 15 (0.005 -7.34788079488412e-20 -0.0004)
    arc 14 8 (0.0 0.0004 0.0)
    arc 15 10 (0.005 0.0004 0.0)
    arc 0 1 (0.0 1.0205389992894612e-20 0.0001666666666666667)
    arc 1 2 (0.0 -0.0001666666666666667 2.0410779985789224e-20)
    arc 2 3 (0.0 -3.0616169978683835e-20 -0.0001666666666666667)
    arc 3 0 (0.0 0.0001666666666666667 0.0)
    arc 4 5 (0.005 1.0205389992894612e-20 0.0001666666666666667)
    arc 5 6 (0.005 -0.0001666666666666667 2.0410779985789224e-20)
    arc 6 7 (0.005 -3.0616169978683835e-20 -0.0001666666666666667)
    arc 7 4 (0.005 0.0001666666666666667 0.0)
    arc 20 21 (0.006 1.2246467991473531e-19 0.002)
    arc 21 22 (0.006 -0.002 2.4492935982947063e-19)
    arc 22 23 (0.006 -3.6739403974420597e-19 -0.002)
    arc 23 20 (0.006 0.002 0.0)
    arc 16 17 (0.006 5.1026949964473056e-20 0.0008333333333333334)
    arc 17 18 (0.006 -0.0008333333333333334 1.0205389992894611e-19)
    arc 18 19 (0.006 -1.5308084989341915e-19 -0.0008333333333333334)
    arc 19 16 (0.006 0.0008333333333333334 0.0)
    arc 28 29 (0.07200000000000001 1.2246467991473531e-19 0.002)
    arc 29 30 (0.07200000000000001 -0.002 2.4492935982947063e-19)
    arc 30 31 (0.07200000000000001 -3.6739403974420597e-19 -0.002)
    arc 31 28 (0.07200000000000001 0.002 0.0)
    arc 24 25 (0.07200000000000001 5.1026949964473056e-20 0.0008333333333333334)
    arc 25 26 (0.07200000000000001 -0.0008333333333333334 1.0205389992894611e-19)
    arc 26 27 (0.07200000000000001 -1.5308084989341915e-19 -0.0008333333333333334)
    arc 27 24 (0.07200000000000001 0.0008333333333333334 0.0)
);

boundary
(
    
    inlet
    {
        type patch;
        faces
        (
            (0 1 2 3)
            (0 8 9 1)
            (1 9 12 2)
            (2 12 14 3)
            (3 14 8 0)
            
        );

    }
    
    outlet
    {
        type patch;
        faces
        (
            (24 25 26 27)
            (24 28 29 25)
            (25 29 30 26)
            (26 30 31 27)
            (27 31 28 24)
            
        );

    }
    
    wall
    {
        type patch;
        faces
        (
            (10 8 9 11)
            (11 9 12 13)
            (13 12 14 15)
            (15 14 8 10)
            (20 10 11 21)
            (21 11 13 22)
            (22 13 15 23)
            (23 15 10 20)
            (28 20 21 29)
            (29 21 22 30)
            (30 22 23 31)
            (31 23 20 28)
            
        );

    }
    
);

mergePatchPairs
(
);

// ************************************************************************* //