/*--------------------------------*- C++ -*----------------------------------*\
| =========                 |                                                 |
| \\      /  F ield         | OpenFOAM: The Open Source CFD Toolbox           |
|  \\    /   O peration     | Version:  v1806                                 |
|   \\  /    A nd           | Web:      www.OpenFOAM.com                      |
|    \\/     M anipulation  |                                                 |
\*---------------------------------------------------------------------------*/
FoamFile
{
    version     2.0;
    format      ascii;
    class       dictionary;
    object      blockMeshDict;
}
// * * * * * * * * * * * * * * * * * * * * * * * * * * * * * * * * * * * * * //

scale   1;

vertices
(
    
    (-0.05	-0.05	-0.05) // 0
    (0.05	-0.05	-0.05) // 1
    (0.05	0.05	-0.05) // 2
    (-0.05	0.05	-0.05) // 3
    (-0.07071067811865475	-6.938893903907228e-18	0.05) // 4
    (6.938893903907228e-18	-0.07071067811865475	0.05) // 5
    (0.07071067811865475	6.938893903907228e-18	0.05) // 6
    (-6.938893903907228e-18	0.07071067811865475	0.05) // 7
);

blocks
(
    
    hex  ( 0 1 2 3 4 5 6 7 )  (10 10 10)  simpleGrading (1 1 0.20253645843114) // 0 
);

edges
(
    
    arc 0 4 (-0.032664074121909414 -0.013529902503654925 0.0)
    arc 1 5 (0.013529902503654925 -0.032664074121909414 0.0)
    arc 2 6 (0.032664074121909414 0.013529902503654925 0.0)
    arc 3 7 (-0.013529902503654925 0.032664074121909414 0.0)
);

boundary
(
    
    inlet
    {
        type patch;
        faces
        (
            (4 5 6 7)
            
        );

    }
    
    walls
    {
        type patch;
        faces
        (
            (4 0 3 7)
            (5 1 2 6)
            (4 5 1 0)
            (7 6 2 3)
            
        );

    }
    
    outlet
    {
        type patch;
        faces
        (
            (0 1 2 3)
            
        );

    }
    
);

mergePatchPairs
(
);

// ************************************************************************* //