/*--------------------------------*- C++ -*----------------------------------*\
| =========                 |                                                 |
| \\      /  F ield         | OpenFOAM: The Open Source CFD Toolbox           |
|  \\    /   O peration     | Version:  v1912                                 |
|   \\  /    A nd           | Website:  www.openfoam.com                      |
|    \\/     M anipulation  |                                                 |
\*---------------------------------------------------------------------------*/
FoamFile
{
    version     2.0;
    format      ascii;
    class       polyBoundaryMesh;
    location    "constant/polyMesh";
    object      boundary;
}
// * * * * * * * * * * * * * * * * * * * * * * * * * * * * * * * * * * * * * //

6
(
    inlet
    {
        type            patch;
        nFaces          10;
        startFace       31519;
    }
    wedge_right
    {
        type            patch;
        nFaces          16014;
        startFace       31529;
    }
    wall
    {
        type            patch;
        nFaces          499;
        startFace       47543;
    }
    wedge_left
    {
        type            patch;
        nFaces          16014;
        startFace       48042;
    }
    outlet
    {
        type            patch;
        nFaces          62;
        startFace       64056;
    }
    defaultFaces
    {
        type            empty;
        inGroups        1(empty);
        nFaces          0;
        startFace       64118;
    }
)

// ************************************************************************* //
