/*--------------------------------*- C++ -*----------------------------------*\
| =========                 |                                                 |
| \\      /  F ield         | OpenFOAM: The Open Source CFD Toolbox           |
|  \\    /   O peration     | Version:  v1806                                 |
|   \\  /    A nd           | Web:      www.OpenFOAM.com                      |
|    \\/     M anipulation  |                                                 |
\*---------------------------------------------------------------------------*/
FoamFile
{
    version     2.0;
    format      ascii;
    class       dictionary;
    object      blockMeshDict;
}
// * * * * * * * * * * * * * * * * * * * * * * * * * * * * * * * * * * * * * //

scale   1;

vertices
(
    
    (0.00000000 0.02000000 0.00000000) // 0
    (0.00000000 0.00000000 0.02000000) // 1
    (0.00000000 -0.02000000 0.00000000) // 2
    (0.00000000 -0.00000000 -0.02000000) // 3
    (0.30000000 0.02000000 0.00000000) // 4
    (0.30000000 0.00000000 0.02000000) // 5
    (0.30000000 -0.02000000 0.00000000) // 6
    (0.30000000 -0.00000000 -0.02000000) // 7
    (0.00000000 0.05000000 0.00000000) // 8
    (0.00000000 0.00000000 0.05000000) // 9
    (0.30000000 0.05000000 0.00000000) // 10
    (0.30000000 0.00000000 0.05000000) // 11
    (0.00000000 -0.05000000 0.00000000) // 12
    (0.30000000 -0.05000000 0.00000000) // 13
    (0.00000000 -0.00000000 -0.05000000) // 14
    (0.30000000 -0.00000000 -0.05000000) // 15
    (0.40000000 0.12000000 0.00000000) // 16
    (0.42000000 0.12000000 0.02000000) // 17
    (0.44000000 0.12000000 0.00000000) // 18
    (0.42000000 0.12000000 -0.02000000) // 19
    (0.37000000 0.12000000 0.00000000) // 20
    (0.42000000 0.12000000 0.05000000) // 21
    (0.47000000 0.12000000 0.00000000) // 22
    (0.42000000 0.12000000 -0.05000000) // 23
    (0.40000000 0.22000000 0.00000000) // 24
    (0.42000000 0.22000000 0.02000000) // 25
    (0.44000000 0.22000000 0.00000000) // 26
    (0.42000000 0.22000000 -0.02000000) // 27
    (0.37000000 0.22000000 0.00000000) // 28
    (0.42000000 0.22000000 0.05000000) // 29
    (0.47000000 0.22000000 0.00000000) // 30
    (0.42000000 0.22000000 -0.05000000) // 31
    (0.40000000 0.34000000 0.12000000) // 32
    (0.42000000 0.32000000 0.12000000) // 33
    (0.44000000 0.34000000 0.12000000) // 34
    (0.42000000 0.36000000 0.12000000) // 35
    (0.37000000 0.34000000 0.12000000) // 36
    (0.42000000 0.29000000 0.12000000) // 37
    (0.47000000 0.34000000 0.12000000) // 38
    (0.42000000 0.39000000 0.12000000) // 39
    (0.40000000 0.34000000 0.62000000) // 40
    (0.42000000 0.32000000 0.62000000) // 41
    (0.44000000 0.34000000 0.62000000) // 42
    (0.42000000 0.36000000 0.62000000) // 43
    (0.37000000 0.34000000 0.62000000) // 44
    (0.42000000 0.29000000 0.62000000) // 45
    (0.47000000 0.34000000 0.62000000) // 46
    (0.42000000 0.39000000 0.62000000) // 47
);

blocks
(
    
    hex  ( 0 1 2 3 4 5 6 7 )  (12 12 29)  simpleGrading (1 1 0.1487187972998604) // 0 
    hex  ( 0 8 9 1 4 10 11 5 )  (10 12 29)  simpleGrading (1 1 0.1487187972998604) // 1 
    hex  ( 1 9 12 2 5 11 13 6 )  (10 12 29)  simpleGrading (1 1 0.1487187972998604) // 2 
    hex  ( 2 12 14 3 6 13 15 7 )  (10 12 29)  simpleGrading (1 1 0.1487187972998604) // 3 
    hex  ( 3 14 8 0 7 15 10 4 )  (10 12 29)  simpleGrading (1 1 0.1487187972998604) // 4 
    hex  ( 4 5 6 7 16 17 18 19 )  (12 12 51)  simpleGrading (1 1 1) // 5 
    hex  ( 4 10 11 5 16 20 21 17 )  (10 12 51)  simpleGrading (1 1 1) // 6 
    hex  ( 5 11 13 6 17 21 22 18 )  (10 12 51)  simpleGrading (1 1 1) // 7 
    hex  ( 6 13 15 7 18 22 23 19 )  (10 12 51)  simpleGrading (1 1 1) // 8 
    hex  ( 7 15 10 4 19 23 20 16 )  (10 12 51)  simpleGrading (1 1 1) // 9 
    hex  ( 16 17 18 19 24 25 26 27 )  (12 12 30)  simpleGrading (1 1 1) // 10 
    hex  ( 16 20 21 17 24 28 29 25 )  (10 12 30)  simpleGrading (1 1 1) // 11 
    hex  ( 17 21 22 18 25 29 30 26 )  (10 12 30)  simpleGrading (1 1 1) // 12 
    hex  ( 18 22 23 19 26 30 31 27 )  (10 12 30)  simpleGrading (1 1 1) // 13 
    hex  ( 19 23 20 16 27 31 28 24 )  (10 12 30)  simpleGrading (1 1 1) // 14 
    hex  ( 24 25 26 27 32 33 34 35 )  (12 12 51)  simpleGrading (1 1 1) // 15 
    hex  ( 24 28 29 25 32 36 37 33 )  (10 12 51)  simpleGrading (1 1 1) // 16 
    hex  ( 25 29 30 26 33 37 38 34 )  (10 12 51)  simpleGrading (1 1 1) // 17 
    hex  ( 26 30 31 27 34 38 39 35 )  (10 12 51)  simpleGrading (1 1 1) // 18 
    hex  ( 27 31 28 24 35 39 36 32 )  (10 12 51)  simpleGrading (1 1 1) // 19 
    hex  ( 32 33 34 35 40 41 42 43 )  (12 12 50)  simpleGrading (1 1 6.520851823368023) // 20 
    hex  ( 32 36 37 33 40 44 45 41 )  (10 12 50)  simpleGrading (1 1 6.520851823368023) // 21 
    hex  ( 33 37 38 34 41 45 46 42 )  (10 12 50)  simpleGrading (1 1 6.520851823368023) // 22 
    hex  ( 34 38 39 35 42 46 47 43 )  (10 12 50)  simpleGrading (1 1 6.520851823368023) // 23 
    hex  ( 35 39 36 32 43 47 44 40 )  (10 12 50)  simpleGrading (1 1 6.520851823368023) // 24 
);

edges
(
    
    arc 0 1 (0.00000000 0.01096016 0.01096016)
    arc 1 2 (0.00000000 -0.01096016 0.01096016)
    arc 2 3 (0.00000000 -0.01096016 -0.01096016)
    arc 3 0 (0.00000000 0.01096016 -0.01096016)
    arc 4 5 (0.30000000 0.01096016 0.01096016)
    arc 5 6 (0.30000000 -0.01096016 0.01096016)
    arc 6 7 (0.30000000 -0.01096016 -0.01096016)
    arc 7 4 (0.30000000 0.01096016 -0.01096016)
    arc 8 9 (0.00000000 0.03535534 0.03535534)
    arc 10 11 (0.30000000 0.03535534 0.03535534)
    arc 9 12 (0.00000000 -0.03535534 0.03535534)
    arc 11 13 (0.30000000 -0.03535534 0.03535534)
    arc 12 14 (0.00000000 -0.03535534 -0.03535534)
    arc 13 15 (0.30000000 -0.03535534 -0.03535534)
    arc 14 8 (0.00000000 0.03535534 -0.03535534)
    arc 15 10 (0.30000000 0.03535534 -0.03535534)
    arc 16 17 (0.40903984 0.12000000 0.01096016)
    arc 17 18 (0.43096016 0.12000000 0.01096016)
    arc 18 19 (0.43096016 0.12000000 -0.01096016)
    arc 19 16 (0.40903984 0.12000000 -0.01096016)
    arc 4 16 (0.37071068 0.04928932 0.00000000)
    arc 5 17 (0.38485281 0.03514719 0.02000000)
    arc 6 18 (0.39899495 0.02100505 -0.00000000)
    arc 7 19 (0.38485281 0.03514719 -0.02000000)
    arc 20 21 (0.38464466 0.12000000 0.03535534)
    arc 10 20 (0.34949747 0.07050253 0.00000000)
    arc 11 21 (0.38485281 0.03514719 0.05000000)
    arc 21 22 (0.45535534 0.12000000 0.03535534)
    arc 13 22 (0.42020815 -0.00020815 -0.00000000)
    arc 22 23 (0.45535534 0.12000000 -0.03535534)
    arc 15 23 (0.38485281 0.03514719 -0.05000000)
    arc 23 20 (0.38464466 0.12000000 -0.03535534)
    arc 24 25 (0.40903984 0.22000000 0.01096016)
    arc 25 26 (0.43096016 0.22000000 0.01096016)
    arc 26 27 (0.43096016 0.22000000 -0.01096016)
    arc 27 24 (0.40903984 0.22000000 -0.01096016)
    arc 28 29 (0.38464466 0.22000000 0.03535534)
    arc 29 30 (0.45535534 0.22000000 0.03535534)
    arc 30 31 (0.45535534 0.22000000 -0.03535534)
    arc 31 28 (0.38464466 0.22000000 -0.03535534)
    arc 32 33 (0.40903984 0.32903984 0.12000000)
    arc 33 34 (0.43096016 0.32903984 0.12000000)
    arc 34 35 (0.43096016 0.35096016 0.12000000)
    arc 35 32 (0.40903984 0.35096016 0.12000000)
    arc 24 32 (0.40000000 0.30485281 0.03514719)
    arc 25 33 (0.42000000 0.29071068 0.04928932)
    arc 26 34 (0.44000000 0.30485281 0.03514719)
    arc 27 35 (0.42000000 0.31899495 0.02100505)
    arc 36 37 (0.38464466 0.30464466 0.12000000)
    arc 28 36 (0.37000000 0.30485281 0.03514719)
    arc 29 37 (0.42000000 0.26949747 0.07050253)
    arc 37 38 (0.45535534 0.30464466 0.12000000)
    arc 30 38 (0.47000000 0.30485281 0.03514719)
    arc 38 39 (0.45535534 0.37535534 0.12000000)
    arc 31 39 (0.42000000 0.34020815 -0.00020815)
    arc 39 36 (0.38464466 0.37535534 0.12000000)
    arc 40 41 (0.40903984 0.32903984 0.62000000)
    arc 41 42 (0.43096016 0.32903984 0.62000000)
    arc 42 43 (0.43096016 0.35096016 0.62000000)
    arc 43 40 (0.40903984 0.35096016 0.62000000)
    arc 44 45 (0.38464466 0.30464466 0.62000000)
    arc 45 46 (0.45535534 0.30464466 0.62000000)
    arc 46 47 (0.45535534 0.37535534 0.62000000)
    arc 47 44 (0.38464466 0.37535534 0.62000000)
);

boundary
(
    
    wall
    {
        type patch;
        faces
        (
            (10 8 9 11)
            (11 9 12 13)
            (13 12 14 15)
            (15 14 8 10)
            (20 10 11 21)
            (21 11 13 22)
            (22 13 15 23)
            (23 15 10 20)
            (28 20 21 29)
            (29 21 22 30)
            (30 22 23 31)
            (31 23 20 28)
            (36 28 29 37)
            (37 29 30 38)
            (38 30 31 39)
            (39 31 28 36)
            (44 36 37 45)
            (45 37 38 46)
            (46 38 39 47)
            (47 39 36 44)
            
        );

    }
    
    outlet
    {
        type patch;
        faces
        (
            (40 41 42 43)
            (40 44 45 41)
            (41 45 46 42)
            (42 46 47 43)
            (43 47 44 40)
            
        );

    }
    
    inlet
    {
        type patch;
        faces
        (
            (0 1 2 3)
            (0 8 9 1)
            (1 9 12 2)
            (2 12 14 3)
            (3 14 8 0)
            
        );

    }
    
);

mergePatchPairs
(
);

// ************************************************************************* //