/*--------------------------------*- C++ -*----------------------------------*\
| =========                 |                                                 |
| \\      /  F ield         | OpenFOAM: The Open Source CFD Toolbox           |
|  \\    /   O peration     | Version:  v1806                                 |
|   \\  /    A nd           | Web:      www.OpenFOAM.com                      |
|    \\/     M anipulation  |                                                 |
\*---------------------------------------------------------------------------*/
FoamFile
{
    version     2.0;
    format      ascii;
    class       dictionary;
    object      blockMeshDict;
}
// * * * * * * * * * * * * * * * * * * * * * * * * * * * * * * * * * * * * * //

scale   1;

vertices
(
    
    (0.00000000 0.00000000 0.00400000) // 0
    (0.00000000 -0.00400000 0.00000000) // 1
    (0.00000000 -0.00000000 -0.00400000) // 2
    (0.00000000 0.00400000 -0.00000000) // 3
    (0.05000000 0.00000000 0.00400000) // 4
    (0.05000000 -0.00400000 0.00000000) // 5
    (0.05000000 -0.00000000 -0.00400000) // 6
    (0.05000000 0.00400000 -0.00000000) // 7
    (0.00000000 0.00000000 0.01000000) // 8
    (0.00000000 -0.01000000 0.00000000) // 9
    (0.05000000 0.00000000 0.01000000) // 10
    (0.05000000 -0.01000000 0.00000000) // 11
    (0.00000000 0.00000000 -0.01000000) // 12
    (0.05000000 0.00000000 -0.01000000) // 13
    (0.00000000 0.01000000 -0.00000000) // 14
    (0.05000000 0.01000000 -0.00000000) // 15
    (0.07000000 0.00000000 0.00240000) // 16
    (0.07000000 -0.00240000 0.00000000) // 17
    (0.07000000 -0.00000000 -0.00240000) // 18
    (0.07000000 0.00240000 -0.00000000) // 19
    (0.07000000 0.00000000 0.00600000) // 20
    (0.07000000 -0.00600000 0.00000000) // 21
    (0.07000000 0.00000000 -0.00600000) // 22
    (0.07000000 0.00600000 -0.00000000) // 23
    (0.17000000 0.00000000 0.00240000) // 24
    (0.17000000 -0.00240000 0.00000000) // 25
    (0.17000000 -0.00000000 -0.00240000) // 26
    (0.17000000 0.00240000 -0.00000000) // 27
    (0.17000000 0.00000000 0.00600000) // 28
    (0.17000000 -0.00600000 0.00000000) // 29
    (0.17000000 0.00000000 -0.00600000) // 30
    (0.17000000 0.00600000 -0.00000000) // 31
    (0.17500000 0.02000000 0.00000000) // 32
    (0.07000000 0.02000000 0.00000000) // 33
    (0.17500000 0.00000000 0.02000000) // 34
    (0.07000000 0.00000000 0.02000000) // 35
    (0.17500000 -0.02000000 0.00000000) // 36
    (0.07000000 -0.02000000 0.00000000) // 37
    (0.17500000 -0.00000000 -0.02000000) // 38
    (0.07000000 -0.00000000 -0.02000000) // 39
    (0.25000000 0.00000000 0.00240000) // 40
    (0.25000000 -0.00240000 0.00000000) // 41
    (0.25000000 -0.00000000 -0.00240000) // 42
    (0.25000000 0.00240000 -0.00000000) // 43
    (0.25000000 0.00000000 0.00600000) // 44
    (0.25000000 -0.00600000 0.00000000) // 45
    (0.25000000 0.00000000 -0.00600000) // 46
    (0.25000000 0.00600000 -0.00000000) // 47
);

blocks
(
    
    hex  ( 0 1 2 3 4 5 6 7 )  (12 12 50)  simpleGrading (1 1 1) // 0 
    hex  ( 0 8 9 1 4 10 11 5 )  (8 12 50)  simpleGrading (1 1 1) // 1 
    hex  ( 1 9 12 2 5 11 13 6 )  (8 12 50)  simpleGrading (1 1 1) // 2 
    hex  ( 2 12 14 3 6 13 15 7 )  (8 12 50)  simpleGrading (1 1 1) // 3 
    hex  ( 3 14 8 0 7 15 10 4 )  (8 12 50)  simpleGrading (1 1 1) // 4 
    hex  ( 4 5 6 7 16 17 18 19 )  (12 12 20)  simpleGrading (1 1 0.2977369985512495) // 5 
    hex  ( 4 10 11 5 16 20 21 17 )  (8 12 20)  simpleGrading (1 1 0.2977369985512495) // 6 
    hex  ( 5 11 13 6 17 21 22 18 )  (8 12 20)  simpleGrading (1 1 0.2977369985512495) // 7 
    hex  ( 6 13 15 7 18 22 23 19 )  (8 12 20)  simpleGrading (1 1 0.2977369985512495) // 8 
    hex  ( 7 15 10 4 19 23 20 16 )  (8 12 20)  simpleGrading (1 1 0.2977369985512495) // 9 
    hex  ( 16 17 18 19 24 25 26 27 )  (12 12 100)  simpleGrading (1 1 3.4767095656582723) // 10 
    hex  ( 16 20 21 17 24 28 29 25 )  (8 12 100)  simpleGrading (1 1 3.4767095656582723) // 11 
    hex  ( 17 21 22 18 25 29 30 26 )  (8 12 100)  simpleGrading (1 1 3.4767095656582723) // 12 
    hex  ( 18 22 23 19 26 30 31 27 )  (8 12 100)  simpleGrading (1 1 3.4767095656582723) // 13 
    hex  ( 19 23 20 16 27 31 28 24 )  (8 12 100)  simpleGrading (1 1 3.4767095656582723) // 14 
    hex  ( 23 31 32 33 20 28 34 35 )  (100 14 12)  simpleGrading (3.4767095656582723 3.599156628337007 1) // 15 
    hex  ( 20 28 34 35 21 29 36 37 )  (100 14 12)  simpleGrading (3.4767095656582723 3.599156628337007 1) // 16 
    hex  ( 21 29 36 37 22 30 38 39 )  (100 14 12)  simpleGrading (3.4767095656582723 3.599156628337007 1) // 17 
    hex  ( 22 30 38 39 23 31 32 33 )  (100 14 12)  simpleGrading (3.4767095656582723 3.599156628337007 1) // 18 
    hex  ( 24 25 26 27 40 41 42 43 )  (12 12 79)  simpleGrading (1 1 1) // 19 
    hex  ( 24 28 29 25 40 44 45 41 )  (8 12 79)  simpleGrading (1 1 1) // 20 
    hex  ( 25 29 30 26 41 45 46 42 )  (8 12 79)  simpleGrading (1 1 1) // 21 
    hex  ( 26 30 31 27 42 46 47 43 )  (8 12 79)  simpleGrading (1 1 1) // 22 
    hex  ( 27 31 28 24 43 47 44 40 )  (8 12 79)  simpleGrading (1 1 1) // 23 
);

edges
(
    
    arc 0 1 (0.00000000 -0.00219203 0.00219203)
    arc 1 2 (0.00000000 -0.00219203 -0.00219203)
    arc 2 3 (0.00000000 0.00219203 -0.00219203)
    arc 3 0 (0.00000000 0.00219203 0.00219203)
    arc 4 5 (0.05000000 -0.00219203 0.00219203)
    arc 5 6 (0.05000000 -0.00219203 -0.00219203)
    arc 6 7 (0.05000000 0.00219203 -0.00219203)
    arc 7 4 (0.05000000 0.00219203 0.00219203)
    arc 8 9 (0.00000000 -0.00707107 0.00707107)
    arc 10 11 (0.05000000 -0.00707107 0.00707107)
    arc 9 12 (0.00000000 -0.00707107 -0.00707107)
    arc 11 13 (0.05000000 -0.00707107 -0.00707107)
    arc 12 14 (0.00000000 0.00707107 -0.00707107)
    arc 13 15 (0.05000000 0.00707107 -0.00707107)
    arc 14 8 (0.00000000 0.00707107 0.00707107)
    arc 15 10 (0.05000000 0.00707107 0.00707107)
    arc 16 17 (0.07000000 -0.00131522 0.00131522)
    arc 17 18 (0.07000000 -0.00131522 -0.00131522)
    arc 18 19 (0.07000000 0.00131522 -0.00131522)
    arc 19 16 (0.07000000 0.00131522 0.00131522)
    arc 20 21 (0.07000000 -0.00424264 0.00424264)
    arc 21 22 (0.07000000 -0.00424264 -0.00424264)
    arc 22 23 (0.07000000 0.00424264 -0.00424264)
    arc 23 20 (0.07000000 0.00424264 0.00424264)
    arc 24 25 (0.17000000 -0.00131522 0.00131522)
    arc 25 26 (0.17000000 -0.00131522 -0.00131522)
    arc 26 27 (0.17000000 0.00131522 -0.00131522)
    arc 27 24 (0.17000000 0.00131522 0.00131522)
    arc 28 29 (0.17000000 -0.00424264 0.00424264)
    arc 29 30 (0.17000000 -0.00424264 -0.00424264)
    arc 30 31 (0.17000000 0.00424264 -0.00424264)
    arc 31 28 (0.17000000 0.00424264 0.00424264)
    arc 32 34 (0.17500000 0.01414214 0.01414214)
    arc 33 35 (0.07000000 0.01414214 0.01414214)
    arc 34 36 (0.17500000 -0.01414214 0.01414214)
    arc 35 37 (0.07000000 -0.01414214 0.01414214)
    arc 36 38 (0.17500000 -0.01414214 -0.01414214)
    arc 37 39 (0.07000000 -0.01414214 -0.01414214)
    arc 38 32 (0.17500000 0.01414214 -0.01414214)
    arc 39 33 (0.07000000 0.01414214 -0.01414214)
    arc 40 41 (0.25000000 -0.00131522 0.00131522)
    arc 41 42 (0.25000000 -0.00131522 -0.00131522)
    arc 42 43 (0.25000000 0.00131522 -0.00131522)
    arc 43 40 (0.25000000 0.00131522 0.00131522)
    arc 44 45 (0.25000000 -0.00424264 0.00424264)
    arc 45 46 (0.25000000 -0.00424264 -0.00424264)
    arc 46 47 (0.25000000 0.00424264 -0.00424264)
    arc 47 44 (0.25000000 0.00424264 0.00424264)
);

boundary
(
    
    outlet
    {
        type patch;
        faces
        (
            (40 41 42 43)
            (40 44 45 41)
            (41 45 46 42)
            (42 46 47 43)
            (43 47 44 40)
            
        );

    }
    
    inlet
    {
        type patch;
        faces
        (
            (0 1 2 3)
            (0 8 9 1)
            (1 9 12 2)
            (2 12 14 3)
            (3 14 8 0)
            
        );

    }
    
    wall
    {
        type patch;
        faces
        (
            (10 8 9 11)
            (11 9 12 13)
            (13 12 14 15)
            (15 14 8 10)
            (20 10 11 21)
            (21 11 13 22)
            (22 13 15 23)
            (23 15 10 20)
            (20 23 33 35)
            (28 31 32 34)
            (35 34 32 33)
            (21 20 35 37)
            (29 28 34 36)
            (37 36 34 35)
            (22 21 37 39)
            (30 29 36 38)
            (39 38 36 37)
            (23 22 39 33)
            (31 30 38 32)
            (33 32 38 39)
            (44 28 29 45)
            (45 29 30 46)
            (46 30 31 47)
            (47 31 28 44)
            
        );

    }
    
);

mergePatchPairs
(
);

// ************************************************************************* //